1. Introduction
Posttranslational modifications (PTMs) by members of the ubiquitin family are covalent events that promote radical changes in the properties of modified proteins. Among all ubiquitin-like molecules, a particular attention has been given to the modification by SUMO (Small Ubiquitin MOdifier) also known as Sentrin. SUMOylation plays critical roles in a variety of cellular processes, including transcription, cellular localization, DNA repair, and cell cycle progression [–]. In mammals, there are four reported SUMO paralogues named SUMO-1 to SUMO-4 (). SUMO-2 and SUMO-3, often referred as SUMO-2/-3, show a high degree of similarity and are distinct from SUMO-1 (approx., 50% similarity). SUMO-4 shows 87% similarity to SUMO-2/-3. However, SUMO-4, in contrast to SUMO-1, SUMO-2, and SUMO-3, seems to be insensitive to SUMO-specific proteases due to the presence of Pro-90. This may impair the processing of SUMO-4 to a mature form and its conjugation to substrates [, ]. Mass-spectrometric proof for the existence of conjugated SUMO-4 at the endogenous level is currently still missing, therefore, its relevance is still under debate. In mammals, SUMOylation is executed through a thiol-ester cascade of reactions mediated by the heterodimeric SUMO activating enzyme SEA1/SEA2 (in yeast Aos1/Uba2) or E1, the SUMO conjugating enzyme Ubc9 or E2 and a SUMO-E3-ligase specific for each target protein. Several families of SUMO E3s have been reported whose action appears to be in a dynamic equilibrium with hyperactive SUMO-specific proteases known as SUSPs or SENPs [, ] ( and ).

The first reported molecules covalently modified by SUMO-1 were the GTPase-activating protein 1 (RanGAP1) [, ] and the promyelocytic leukemia protein (PML), a main component of nuclear bodies (NBs) [, ]. In contrast, SUMO-2 was initially predicted to be a SUMO modifier in silico. SUMO-2 was subsequently isolated and its capacity to be conjugated to substrate proteins demonstrated [, ]. Interestingly, SUMO-2 and SUMO-3 seem to be involved specifically in the stress response and are able to form chains on target proteins through internal lysine residues, as it is observed with ubiquitin []. SUMO-1 has also been found integrated in chains with  SUMO-2/-3 but the architecture of these polymers is still unclear []. With such large diversity of chains, it should be possible to distinguish between chains types when attached to distinct substrates. The chain recognition by the SUMO-interacting motifs (SIMs) is, therefore, crucial to connect with distinct molecular functions. The knowledge of motifs, recognition signals, and targets regulated by SUMOylation will offer the possibility to integrate individual and global functions controlled by this PTM.

Since the initial demonstration that SUMO was able to modify RanGAP1 and PML, SUMOylation has been involved in multiple cellular processes including the regulation of transcription factor activity, nuclear receptors (NRs), and their coregulators. Proteomic and protein-targeted approaches have revealed a number of SUMOylated corepressors linked to histone deacetylation, demethylation, and other chromatin complexes [–]. Implications of SUMOylation in genome integrity, DNA repair, and replication have also been reported []. Therefore, it is not surprising to confirm that SUMOylation is implicated in several human disorders such as neurodegenerative diseases associated to huntingtin, ataxin-1, tau, alpha-synuclein, DJ-1 or PARK-7 (Parkinson's disease 7), and superoxide dismutase 1 (SOD-1). SUMOylation has been associated as well with cancer development and tumorigenesis due to its multiple cancer-related targets such as p53, pRB, p63, p73, and Mdm2 [, , ].

To understand how SUMOylation can specifically control protein activity, it is crucial to explore individual and global processes regulated by this PTM. When studying SUMOylation some of the first questions, we should answer are which technical approaches can be considered?, which biological model and experimental design will be optimal?, and which physiological condition/stimuli can provide conclusive results? The assessment of the advantages and inconveniences of the methods used to explore SUMOylation is crucial to obtain the right answers. Determining which sequences are recognized for the SUMOylation of a target protein and which domains of the “receptor protein” are involved in the recognition of the modified protein is just the first step in this long knowledge acquisition process. When it comes to identify SUMOylated proteins by mass spectrometry (MS), the chosen approach will be critical to distinguish between putative SUMOylated targets from real SUMO substrates that are effectively modified in living cells. In this review, our aim is to provide guidelines for choosing methods to explore protein SUMOylation, to define cis and trans sequences involved in SUMO-regulated process, and to identify and analyze in an integrated manner, known and putative targets of SUMOylation.

2. Caveats to Study SUMOylation
The presence of active SUMO-specific proteases (SENPs) which remove SUMO from protein substrates, within the cell but also after cell lysis, has been the main problem to study protein SUMOylation (). Therefore, many of the strategies currently used aim to bypass the action of these proteases. SENPs belong to a family of cysteine proteases with a catalytic triad composed of Cysteine, Histidine, and Aspartic acid residues. The first identified SENP was ULP1 in S. cerevisiae [], and to date six SUMO-specific peptidases have been identified in human cells, namely, SENP 1, 2, 3, 5, 6, and 7 [, ]. Recently, a new type of SUMO protease was identified named DeSUMOylating Isopeptidase 1 (DeSI-1) that recognizes a different set of substrates than SENPs []. The SUMO proteases are able to cleave the peptide bond to generate the mature form of SUMO, and also an isopeptide bond to deconjugate SUMO from its target proteins. The processing of SUMO to the mature form exposes a C-terminal Gly-Gly motif required for the subsequent activation of SUMO and deconjugation step. Within the cell, some SENPs might be involved in either processing or deconjugating process due to the inherent characteristics of individual enzymes or their differential cellular localization. SUMO proteases are not affected by ubiquitin aldehyde (Inhibitor of De-ubiquitylating enzymes used at 1 μM), or by PMSF (phenylmethanesulfonylfluoride, an inhibitor of serine proteases used at 1 mM) [, ]. The most commonly used SENPs inhibitors, NEM (N-Ethylmaleimide) and IAA (2-Iodoacetamide), are not specific since they block all cysteine proteases [, ]. However, those inhibitors are not cell permeable and need to be used during cell lysis. More recently cell-permeable cysteine protease inhibitors such as the PR619 have been developed [, ]. Using the cell permeable protease inhibitor PR619 could result in an accumulation of SUMOylated proteins, some of which can be degraded by proteasome (Rodriguez MS, unpublished observations). SUMOylation was not initially linked to the degradation of target proteins. The first case has been referred for PML upon arsenic trioxide treatment [, ]. Uzunova and collaborators reported that the inhibition of proteasome leads to the accumulation of proteins modified by ubiquitin and SMT3 in yeast or SUMO-2/3 in human cells []. Therefore, SUMO-2/3 conjugation and the ubiquitin-proteasome system are tightly integrated and act in a cooperative manner. Altogether, these results show that SUMOylation plays a more important role in protein degradation than previously thought.

One important concept to consider when studying SUMOylation is the inducible nature of this process. While basal level of SUMOylated proteins can be observed in different cell types, it can significantly increase after a proper stimulation. The first evidences that SUMOylation was involved in cellular stress responses was reported by Saitoh and Hinchey []. These authors also proposed a distinct regulation for SUMO-2/-3 compared to SUMO-1 and suggested that the SUMO-2/-3 pathway may constitute an element of the cellular response to environmental stress, such as osmotic and oxidative stress and heat shock, to globally increase SUMOylation level []. Heat shock was revealed to be very effective for activating SUMOylation by SUMO-2 and SUMO-3 isoforms [, ]. Regarding oxidative stress, it was initially reported that high H2O2 concentration (100 mM) increased SUMOylation, and on the other hand, low concentrations (&lt;1 mM H2O2) inhibits global SUMOylation by inducing the formation of a reversible disulfide bridge between the catalytic cysteine residues of the E1 and E2 enzymes[]. It has also been described that arsenic (As2O3) leads to SUMO-dependent ubiquitin-mediated proteolysis of the PML-RAR fusion protein [, ]. This process is mediated by the Ring finger protein 4 (RNF4), a member of the family of SUMO Targeted Ubiquitin Ligases (STUbLs) [, ]. RNF4 has the ability to recognize polySUMO chains conjugated to PML and promote its ubiquitin-mediated proteolysis [, ].

3. Strategies to Study SUMOylation
SUMO molecules can be associated to proteins through non covalent or covalent interactions []. The type of interaction investigated defines the approach to be used and it is crucial to understand the function of SUMO-interacting factors or SUMOylated proteins. The noncovalent interactions with SUMO are mediated by SIMs or by SUMO-binding domains (SBDs), whereas the covalent interactions are mediated by sequences that promote the conjugation of SUMO to target proteins. A combination of deletions and site-directed mutagenesis is a common strategy used to identify these sequences [–]. This approach also allows functional SUMOylation studies when the same mutants and deletions are transiently expressed in cell lines and compared to the wild-type proteins [, , ]. Using one of the SUMO consensus search programs cited here, the lysine residues modified by any of the SUMO proteins can be identified. While the search of putative SUMOylation sites is simple with the help of prediction programs (see below), in many cases, those sites cannot be trusted because programs do not consider several aspects that affect SUMOylation. Among them is, the correct exposition of the consensus sequence, the association with the right partners or the proper location in a cellular compartment. Furthermore, other posttranslational modifications, such as ubiquitylation or phosphorylation, might condition this event [–]. Therefore, the combination of multiple approaches is often required to confirm SUMOylation and analyze the functional consequences of this posttranslational modification. 

After the identification of the SUMO conjugating enzyme Ubc9 and the SUMO activating enzyme (SAE), one of the most popular techniques used to study SUMOylation was the in vitro conjugation assay []. This type of assays facilitates the identification of potential candidates of SUMOylation, since in saturating conditions of the substrate, SUMO modifiers (SUMO-1, SUMO-2, or SUMO-3), E1 and E2 enzymes, the SUMO E3 is not required. Nevertheless, if the specific SUMO-E3 is known for the analyzed substrates, its presence increases the efficiency of modification () []. The in vitro SUMOylation assay is relatively simple to set up and multiple reactions can be performed using several protein substrates and mutants, facilitating the mapping of the modified lysine residues and the analysis of the sequences required for optimal modification. Several commercial sources distribute enzymes and modifiers required to perform in vitro SUMOylation assays. The specific substrates can be either generated as recombinant proteins or transcribed/translated in vitro using a cDNA encoding the protein of interest. In both cases, the result can be analyzed by PAGE-Western-blot detection using specific antibodies or by labeling the protein of interest with MetS35 during the translation procedure. To increase the signal detected, alternative/additional amino acids can be labeled in the protein of interest. The use of radioactive assays provides clean results, and the relative abundance of modified proteins with respect to the unmodified material is preserved. In contrast, Western-blot analysis tends to be more expensive as it implies the use of specific antibodies against analyzed substrates and SUMO-modifiers. Furthermore, detection by Western-blot provides nonlinear saturated signals and blurry images. Finally, if in vitro assays are regularly used, the purification of recombinant SUMO modifiers and enzymes is straightforward and affordable.

To clearly demonstrate that a target protein is SUMOylated, in addition to in vitro evidences, in vivo approaches are essential. Initial studies were based on the detection by Western-blot of specific SUMOylated proteins using antibodies against the protein of interest [, ]. First, the protein was immunoprecipitated using specific antibodies, and then analyzed by PAGE-Western blot detection with anti-SUMO antibodies. However, antibodies generally made with nonmodified recombinant protein, in many cases, do not immunoprecipitate the SUMOylated form of a protein. Therefore, if this approach is used, several monoclonal and polyclonal antibodies should be tested. More recently, antibodies recognizing peptides modified by ubiquitin have been developed [–], suggesting that this technical alternative should be possible for SUMO-modified peptides. Without any doubt, the most common approach to study SUMOylation has been the nickel chromatography using the different Histidinylated (His6) versions of SUMO molecules. The use of denaturing conditions, with guanidinum and urea in the lysis and washing buffers, results in removal of most unspecific contaminants and inactivation of the SUMO proteases. Preliminary experiments can be set up by transiently expressing His6-SUMO molecules together with target proteins of interest. However, it will be more convenient to detect SUMO-modified forms from cells stably expressing His6-SUMO []. Also, the use of a correct cell environment to analyze SUMOylation can be critical since some events are cell type and/or stimuli specific. It is always convenient to include a positive control such as a typical substrate of SUMOylation (e.g., PML, RanGAP1, IκBα, or p53). To increase the level of SUMOylated proteins, a relevant stimulation can be considered, as well as pretreatments with proteasome inhibitors. More recently, the use of SUMO-interacting motifs (SIMs) from the RNF4 SUMO-dependent ubiquitin ligase has been developed to capture SUMOylated proteins. This approach looks very promising to capture SUMOylated proteins and also SUMO-interacting cellular factors due to the nondenaturing conditions used. However, it remains to be investigated if the nature of the SUMO-chains captured by these SIMs is limited to the particular SUMO-chain architecture recognized by RNF4. The putative SUMOylated proteins purified following these approaches are subsequently analyzed by Western-blot or by MS to identify the isolated SUMO-conjugated cellular factors.

In order to visualize the sites of SUMO conjugation, an “in situ SUMOylation assay” was developed []. This assay consists in five steps: (1) culture of mammalian cells on a coverslip; (2) permeabilization of the cells with detergents; (3) incubation for SUMOylation reaction using GFP/YFP-tagged SUMO, E1 and E2 (Ubc9) enzymes, and ATP; (4) washing out of soluble materials including unconjugated GFP/YFP-SUMO; (5) fixation of the cells to stop the reaction. Muramatsu et al. recently simplified this technique, by using, instead of recombinant proteins, only cultured cells and crude bacterial lysate containing GFP-SUMO-1 []. Using the in situ SUMOylation assay, it was found that both nuclear rim and PML bodies, besides mitotic apparatuses, are major targets for active SUMOylation. The ability to analyze possible SUMO conjugation sites should constitute a valuable tool to investigate where SUMO E3-like activities and/or SUMO substrates exist in the cell. Moreover, the simplified form of this assay could be useful in large-scale screening approaches for the identification of drugs that can inhibit or enhance SUMOylation.

Fluorescence resonance energy transfer (FRET) is a process by which the excited state energy of a fluorescent donor molecule is transferred to an acceptor molecule. Efficient energy transfer requires very close proximity and can, therefore, be used as a read-out for covalent and noncovalent protein interactions. FRET experiments have effectively detected the association of ubiquitin [] or SUMO [, ] with their target proteins. However, the full potential of FRET methods is often limited due to photobleaching, autofluorescence, and high residual excitation of the acceptor fluorophore. This assay has applications in SUMO protease characterization, enzyme kinetic analysis, determination of SUMO protease activity in eukaryotic cell extracts, and high-throughput inhibitor screening [, ]. Ran-GAP1 tagged to Cyan fluorescent protein (CFP) and yellow-fluorescent-protein- (YFP-) tagged mature SUMO were used in the first assays. RanGAP1 was chosen because it is one of the most efficient SUMO targets not requiring addition of an E3 ligase []. FRET assay was also used to measure the interaction between SUMO-1 and C/EBPβ in primary astrocytes and evaluate how SUMOylation of C/EBPβ can regulate NOS2 expression in neurological conditions and diseases []. The role of SUMO modification on the localization and the activity of the orphan nuclear receptor LRH-1 (liver receptor homologue 1) was also studied using FRET []. In 2011, the group of Liao reports the HTS assay development in living cells using an engineered FRET pair, CyPet and YPet, to determine the Kd of SUMO-1 and Ubc9 interaction, which fits very well with that determined by other methods, such as surface plasmon resonance (SPR) []. The same FRET pair, CyPet, and YPet, has been used to develop a pioneer cell-based technique in the field, FRET HTS. Both Kd determination and cell-based HTS were performed in 384-well plate format, which readily allows repeated study and large-scale application, such as genome-wide and industrial applications. Invitrogen Discovery Assays and Services reported recently the development and application of time-resolved Fluorescence-resonance-energy-transfer- (TR-FRET-) based assays capable of detecting SUMOylation or deSUMOylation in a high-throughput screening (HTS) format. Protein SUMOylation can be detected using LanthaScreen (Invitrogen, Carlsbad, CA) TR-FRET technology. Additionally, they have generated reagents useful for assessing the deSUMOylation activity of a SUMO-specific protease [].

Bioluminescence resonance energy transfer (BRET) methods have been developed to overcome some limitations of FRET [, ]. Compared to FRET, which often uses two fluorescent proteins, BRET methods do not require external excitation and, therefore, have relatively low background signal intensities, allowing for more sensitive detection of energy transfer during experiments. An in vitro BRET-based detection system of SUMOylation was developed using RanGAP1 as SUMO substrate. Components of the BRET system include Renilla luciferase (Rluc) fused to SUMO, as the energy donor and enhanced yellow fluorescence protein (EYFP) fused to RanGAP1, as the energy acceptor. BRET efficiencies were determined in the presence of E1 (SAE1/2) and E2 (Ubc9) enzymes. The efficiency of this assay was confirmed by gel electrophoresis and compared with FRET system under identical conditions []. Without requiring any external photoexcitation, BRET system showed 3-fold higher RET efficiency than an almost identical FRET system.

Proximity Ligation Assay (PLA) is a method allowing specific imaging of individual protein or protein complexes in tissue samples []. This method depends on two recognition events. First, the formation of a proper detection complex that results in the creation of a circular DNA strand, which is used to template a localized RCA (rolling-circle amplification) reaction. This will generate a long single-stranded DNA molecule, rolled-up in a ball that can be detected by hybridizing fluorescence-labeled probes. The binding to a target molecule or complex by two antibodies with attached oligonucleotides, referred to as proximity probes, is followed after washes by the addition of two more oligonucleotides that are then ligated into a circular DNA strand, templated by the oligonucleotides attached to antibodies. Next, one of the antibody-bound oligonucleotides is used to prime an RCA reaction, resulting in the formation of a single-stranded rolling circle product (RCP). The RCP is composed of concatenated complements of the DNA circle, and it is covalently attached to one of the proximity probes. The RCP is then visualized by hybridization of fluorescence-labeled complementary oligonucleotide detection probes. In in situ PLA, pairs of antibodies are required to ensure higher selective detection and allowed the formation of a brightly fluorescent spot, which can be imaged by microscopy. In a similar manner, the requirement for two proximal recognition reactions by antibodies can also be used to investigate interactions among pairs of proteins, each of which is recognized by one antibody, or secondary modifications like phosphorylations or glycosylations, by using the appropriate affinity reagents. In situ PLA requires proximity between epitopes in order to allow formation of an amplifiable circulized ligation product and is suitable for any protein pairs for which antibodies are available. PLA offers at least two advantages over FRET or BRET experiments, first endogenous proteins can be investigated and second, signal amplification by RCA increases the number of fluophores per detected protein interaction, so that single events can be easily visualized as prominent fluorescent spot while ignoring any nonspecifically bound fluorescent probes [, ]. Recently, PLA was adapted to localize SUMOylated protein. In this assay, primary antibodies directed against GFP and SUMO-2/-3 and secondary antibodies labeled with oligonucleotides were employed to reveal the location of SUMOylated ZBTB1 []. Altogether, this method should contribute to the establishment and use of comprehensive interactome maps in basic research and for clinical diagnosis.

4. Sequences Recognized by the SUMOylation System 
Early studies allowed the identification of a potential sequence for protein SUMOylation with the first reported SUMO-modifier, SUMO-1 [, ]. The sequence ΨxKE/D considered as SUMO consensus motif (CM), where Ψ is a hydrophobic amino acid, x any amino acid, K a lysine and E/D a glutamic or aspartic amino acid, favored identification of multiple substrates (). The development of bioinformatic tools contributed to increase the long list of substrates of SUMO-1, SUMO-2 and SUMO-3. Among the most popular programs are SUMOplot (http://www.abgent.com/tools/sumoplot) and SUMOsp (http://sumosp.biocuckoo.org/). However, predicted SUMOylation sites using these tools have not always been confirmed. As mentioned above, other structural, temporal, or cellular distribution requirements are important and not considered by these software tools. With the use of new approaches, and in particular with the contribution of MS, the SUMO modification motif was recently corrected []. Nowadays, we know the existence of an inverted consensus motif (ICM), a phosphorylation-dependent SUMO motif (PDSM), where the phosphorylated serine is located at 5 amino acids distance from the modified lysine, a negatively charged amino acid-dependent SUMO motif (NDSM) and a hydrophobic cluster SUMOylation motif (HCSM) that increases the efficiency of modification in relevant targets of SUMOylation such as RanGAP1 [, ] (). Here, we have analyzed all SUMO motifs present in the SUMOylated human proteins that have been reported in the PhosphoSitePlus [] (http://www.phosphosite.org/) and found that the most frequent SUMO consensus contains the sequence [IVL]KxE ().

It is important to underline that only a small proportion of these proteins have been confirmed by mass spectrometry through identification of the SUMO-GG signature peptides. Therefore, it is crucial to distinguish between potential SUMOylated substrates identified using in vitro assays and overexpression systems from those sites identified in vivo with an unambiguous mass accuracy (see the following section). SUMO can also interact with proteins in a noncovalent manner due to the presence of SIMs. The first evidence of SIMs was published by Minty and collaborators in 2000 []. Using a two-hybrid approach, the authors observed that some proteins were able to interact with the SUMOylated version of p73, a member of the p53 family. This analysis revealed a common SxS sequence, in which x is any amino acid surrounded by two serine residues, flanked by a hydrophobic core on one side and acidic amino acids on the other. A few years later, it was found that the presence of a Val/Ile-x-Val/Ile-Val/Ile (V/I-x-V/I-V/I) motif could allow the interaction of SUMO with SIMs []. Several proteins, like the SUMO ligases PIASX and Ran binding-protein 2 (RanBP2/Nup358), contain this motif []. SIMs are also found in some SUMO substrates raising the possibility that components of the modification pathway interact noncovalently with SUMO to facilitate its transfer from enzymes to substrates. In support of this, the SIM in RanBP2/Nup358 is directly adjacent to the minimal IR1-IR2 domain that has E3 activity. However, although this SIM has been shown to bind SUMO, it does not appear to be essential for E3 activity in vitro []. The hydrophobic core of a SIM can bind to an interaction surface on SUMO via a parallel or antiparallel orientation. The acidic residues adjacent to the core might contribute to the affinity, the orientation or the paralogue specificity of binding [, ]. From these initial reports, a more complex type of SIMs named SUMO-binding domains (SBDs), containing several hydrophobic cores of 3 to 4 residues often surrounded by a cluster of acidic amino acids was born [, ]. Recent analysis performed by Hoffman revealed 3 different types of SIMs with the following PROSITE format: SIMa) (PILVM)-(ILVM)-x-(ILVM)-(DES&gt;) (3), SIMb) (PILVM)-(ILVM)-D-L-T, and SIMr) (DSE) (3)-(ILVM)-x-(ILVMF) (2) []. The identification and validation of these SIMs using site directed mutagenesis has been an important approach to investigate the role of SUMO in the regulation of the activity of one particular process or pathway.

5. Analysis of SUMOylated Human Proteins 
Multiple strategies have been exploited to purify SUMOylated proteins from human cell lines such as the use of tagged versions of SUMO and the use of a SIM-based capturing system []. In contrast to ubiquitin, antibodies against SUMO have not been deeply explored, perhaps due to the poor capacity of the first reported antibodies to immunoprecipate SUMO-modified proteins. Alternatively, HA, FLAG, and Myc tagged versions of SUMO have been used to immunopurify SUMO conjugates. The particularity of the immunoprecipitation and SIM-based capturing system is that both methodologies offer the advantage of isolating SUMO-interacting proteins that could be used to connect with the SUMO-regulated functions. However, in both cases one has to distinguish between SUMO-modified proteins and SUMO-interacting factors. Tagged forms such as His6-SUMO molecules are, therefore, more popular to unambiguously identify sites of SUMOylation and formation of SUMO-polymers. A main advantage is the highly denaturing conditions that can be used with this approach allowing inactivation of SUMO-specific proteases and removal of copurified interacting factors. Nevertheless the nickel beads used in this method also purify endogenous proteins that naturally contain histidine rich sequences. To reduce contaminant proteins, tags in tandem allow more than one purification step, increasing the purity of the fractions. The classical Tandem Affinity Purification (TAP) strategy includes a protein A domain and a calmodulin binding domain separated by a tobacco etch virus (TEV) cleavage site. However, large tags might affect the dynamics of conjugation and deconjugation. To avoid these problems, smaller tags such as biotinylated tags have also been used to purify bio-ubiquitin adducts using avidin or streptavidin resins under denaturing conditions [, ]. However, the bio-SUMO counterpart is still under development in drosophila (Mayor Ugo, personal communication). The risk of copurifying endogenous biotinylated proteins cannot be excluded.
